Input Parameters:
   integrator                     = md
   tinit                          = 0
   dt                             = 0.002
   nsteps                         = 6578
   init-step                      = 0
   simulation-part                = 1
   comm-mode                      = Linear
   nstcomm                        = 100
   bd-fric                        = 0
   ld-seed                        = 1993
   emtol                          = 10
   emstep                         = 0.01
   niter                          = 20
   fcstep                         = 0
   nstcgsteep                     = 1000
   nbfgscorr                      = 10
   rtpi                           = 0.05
   nstxout                        = 0
   nstvout                        = 0
   nstfout                        = 0
   nstlog                         = 50000
   nstcalcenergy                  = 100
   nstenergy                      = 50000
   nstxout-compressed             = 10
   compressed-x-precision         = 1000
   cutoff-scheme                  = Verlet
   nstlist                        = 20
   ns-type                        = Grid
   pbc                            = xyz
   periodic-molecules             = FALSE
   verlet-buffer-tolerance        = 0.005
   rlist                          = 1.224
   rlistlong                      = 1.224
   nstcalclr                      = 10
   coulombtype                    = PME
   coulomb-modifier               = Potential-shift
   rcoulomb-switch                = 0
   rcoulomb                       = 1.2
   epsilon-r                      = 1
   epsilon-rf                     = 1
   vdw-type                       = Cut-off
   vdw-modifier                   = Force-switch
   rvdw-switch                    = 1
   rvdw                           = 1.2
   DispCorr                       = No
   table-extension                = 1
   fourierspacing                 = 0.12
   fourier-nx                     = 32
   fourier-ny                     = 32
   fourier-nz                     = 32
   pme-order                      = 4
   ewald-rtol                     = 1e-05
   ewald-rtol-lj                  = 0.001
   lj-pme-comb-rule               = Geometric
   ewald-geometry                 = 0
   epsilon-surface                = 0
   implicit-solvent               = No
   gb-algorithm                   = Still
   nstgbradii                     = 1
   rgbradii                       = 2
   gb-epsilon-solvent             = 80
   gb-saltconc                    = 0
   gb-obc-alpha                   = 1
   gb-obc-beta                    = 0.8
   gb-obc-gamma                   = 4.85
   gb-dielectric-offset           = 0.009
   sa-algorithm                   = Ace-approximation
   sa-surface-tension             = 2.05016
   tcoupl                         = V-rescale
   nsttcouple                     = 10
   nh-chain-length                = 0
   print-nose-hoover-chain-variables = FALSE
   pcoupl                         = No
   pcoupltype                     = Isotropic
   nstpcouple                     = -1
   tau-p                          = 1
   compressibility (3x3):
      compressibility[    0]={ 0.00000e+00,  0.00000e+00,  0.00000e+00}
      compressibility[    1]={ 0.00000e+00,  0.00000e+00,  0.00000e+00}
      compressibility[    2]={ 0.00000e+00,  0.00000e+00,  0.00000e+00}
   ref-p (3x3):
      ref-p[    0]={ 0.00000e+00,  0.00000e+00,  0.00000e+00}
      ref-p[    1]={ 0.00000e+00,  0.00000e+00,  0.00000e+00}
      ref-p[    2]={ 0.00000e+00,  0.00000e+00,  0.00000e+00}
   refcoord-scaling               = No
   posres-com (3):
      posres-com[0]= 0.00000e+00
      posres-com[1]= 0.00000e+00
      posres-com[2]= 0.00000e+00
   posres-comB (3):
      posres-comB[0]= 0.00000e+00
      posres-comB[1]= 0.00000e+00
      posres-comB[2]= 0.00000e+00
   QMMM                           = FALSE
   QMconstraints                  = 0
   QMMMscheme                     = 0
   MMChargeScaleFactor            = 1
qm-opts:
   ngQM                           = 0
   constraint-algorithm           = Lincs
   continuation                   = FALSE
   Shake-SOR                      = FALSE
   shake-tol                      = 0.0001
   lincs-order                    = 4
   lincs-iter                     = 1
   lincs-warnangle                = 30
   nwall                          = 0
   wall-type                      = 9-3
   wall-r-linpot                  = -1
   wall-atomtype[0]               = -1
   wall-atomtype[1]               = -1
   wall-density[0]                = 0
   wall-density[1]                = 0
   wall-ewald-zfac                = 3
   pull                           = no
   rotation                       = FALSE
   interactiveMD                  = FALSE
   disre                          = No
   disre-weighting                = Conservative
   disre-mixed                    = FALSE
   dr-fc                          = 1000
   dr-tau                         = 0
   nstdisreout                    = 100
   orire-fc                       = 0
   orire-tau                      = 0
   nstorireout                    = 100
   free-energy                    = no
   cos-acceleration               = 0
   deform (3x3):
      deform[    0]={ 0.00000e+00,  0.00000e+00,  0.00000e+00}
      deform[    1]={ 0.00000e+00,  0.00000e+00,  0.00000e+00}
      deform[    2]={ 0.00000e+00,  0.00000e+00,  0.00000e+00}
   simulated-tempering            = FALSE
   E-x:
      n = 0
   E-xt:
      n = 0
   E-y:
      n = 0
   E-yt:
      n = 0
   E-z:
      n = 0
   E-zt:
      n = 0
   swapcoords                     = no
   adress                         = FALSE
   userint1                       = 0
   userint2                       = 0
   userint3                       = 0
   userint4                       = 0
   userreal1                      = 0
   userreal2                      = 0
   userreal3                      = 0
   userreal4                      = 0
grpopts:
   nrdf:     189.904      5739.1
   ref-t:         300         300
   tau-t:         0.5         0.5
annealing:          No          No
annealing-npoints:           0           0
   acc:	           0           0           0
   nfreeze:           N           N           N
   energygrp-flags[  0]: 0 0
   energygrp-flags[  1]: 0 0
Using 1 MPI process
Using 8 OpenMP threads

Detecting CPU SIMD instructions.
Present hardware specification:
Vendor: GenuineIntel
Brand:  Intel(R) Xeon(R) CPU E5-2698 v3 @ 2.30GHz
Family:  6  Model: 63  Stepping:  2
Features: aes apic avx avx2 clfsh cmov cx8 cx16 f16c fma htt lahf_lm mmx msr nonstop_tsc pcid pclmuldq pdcm pdpe1gb popcnt pse rdrnd rdtscp sse2 sse3 sse4.1 sse4.2 ssse3 tdt x2apic
SIMD instructions most likely to fit this hardware: AVX2_256
SIMD instructions selected at GROMACS compile time: AVX2_256

Will do PME sum in reciprocal space for electrostatic interactions.

Will do ordinary reciprocal space Ewald sum.
Using a Gaussian width (1/beta) of 0.384195 nm for Ewald
Cut-off's:   NS: 1.224   Coulomb: 1.2   LJ: 1.2
System total charge: 0.000
Generated table with 1112 data points for Ewald.
Tabscale = 500 points/nm
Generated table with 1112 data points for LJ6Shift.
Tabscale = 500 points/nm
Generated table with 1112 data points for LJ12Shift.
Tabscale = 500 points/nm
Generated table with 1112 data points for 1-4 COUL.
Tabscale = 500 points/nm
Generated table with 1112 data points for 1-4 LJ6.
Tabscale = 500 points/nm
Generated table with 1112 data points for 1-4 LJ12.
Tabscale = 500 points/nm

Using AVX2_256 4x8 non-bonded kernels

Potential shift: LJ r^-12: -2.648e-01 r^-6: -5.349e-01, Ewald -1.000e-05
Initialized non-bonded Ewald correction tables, spacing: 1.02e-03 size: 2177

Removing pbc first time

Non-default thread affinity set probably by the OpenMP library,
disabling internal thread affinity

Initializing LINear Constraint Solver

The number of constraints is 35

Center of mass motion removal mode is Linear
We have the following groups for center of mass motion removal:
  0:  rest

There are: 2943 Atoms

Constraining the starting coordinates (step 0)

Constraining the coordinates at t0-dt (step 0)
RMS relative constraint deviation after constraining: 1.22e-06
Initial temperature: 301.699 K

PLUMED: PLUMED is starting
PLUMED: Version: 2.1.2 (git: Unknown) compiled on Jun 28 2015 at 16:20:28
PLUMED: Please cite this paper when using PLUMED [1]
PLUMED: For further information see the PLUMED web page at http://www.plumed-code.org
PLUMED: Molecular dynamics engine: gromacs
PLUMED: Precision of reals: 4
PLUMED: Running over 1 node
PLUMED: Number of atoms: 2943
PLUMED: File suffix:
PLUMED: FILE: plumed.dat
PLUMED: Action WHOLEMOLECULES
PLUMED:   with label @0
PLUMED:   with stride 1
PLUMED:   atoms in entity 0 : 1 4 6 9 10 12 14 15 17 19 21 22 23 25 28 29 30 32 35 36 37 39 41 44 45 47 49 51 53 55 56 57 59 61 64 67 68 72 73 74
PLUMED: Action PATHMSD
PLUMED:   with label p1
PLUMED: Opening reference file iter000_plu.pdb
PLUMED: Found PDB: 1 containing  40 atoms
PLUMED: Found PDB: 2 containing  40 atoms
PLUMED: Found PDB: 3 containing  40 atoms
PLUMED: Found PDB: 4 containing  40 atoms
PLUMED: Found PDB: 5 containing  40 atoms
PLUMED: Found PDB: 6 containing  40 atoms
PLUMED: Found PDB: 7 containing  40 atoms
PLUMED: Found PDB: 8 containing  40 atoms
PLUMED: Found PDB: 9 containing  40 atoms
PLUMED: Found PDB: 10 containing  40 atoms
PLUMED: Found PDB: 11 containing  40 atoms
PLUMED: Found PDB: 12 containing  40 atoms
PLUMED: Found PDB: 13 containing  40 atoms
PLUMED: Found PDB: 14 containing  40 atoms
PLUMED: Found PDB: 15 containing  40 atoms
PLUMED: Found PDB: 16 containing  40 atoms
PLUMED: Found PDB: 17 containing  40 atoms
PLUMED: Found PDB: 18 containing  40 atoms
PLUMED: Found PDB: 19 containing  40 atoms
PLUMED: Found PDB: 20 containing  40 atoms
PLUMED: Found PDB: 21 containing  40 atoms
PLUMED: Found PDB: 22 containing  40 atoms
PLUMED: Found PDB: 23 containing  40 atoms
PLUMED: Found PDB: 24 containing  40 atoms
PLUMED: Found PDB: 25 containing  40 atoms
PLUMED: Found PDB: 26 containing  40 atoms
PLUMED: Found PDB: 27 containing  40 atoms
PLUMED: Found PDB: 28 containing  40 atoms
PLUMED: Found TOTAL 28 PDB in the file iter000_plu.pdb
PLUMED:   Neighbor list enabled:
PLUMED:                 size   :  8 elements
PLUMED:                 stride :  4 timesteps
PLUMED:   Bibliography [2]
PLUMED:   added component to this action:  p1.sss
PLUMED:   added component to this action:  p1.zzz
PLUMED: Action METAD
PLUMED:   with label metaU
PLUMED:   with stride 1
PLUMED:   with arguments p1.sss
PLUMED:   Gaussian width  0.250000  Gaussian height 0.125000
PLUMED:   Gaussian deposition pace 20
PLUMED:   Gaussian file HILLS
PLUMED:   Well-Tempered Bias Factor 10.000000
PLUMED:   Hills relaxation time (tau) 7.183696
PLUMED:   KbT 2.494339
PLUMED:   added component to this action:  metaU.bias
PLUMED:   Bibliography [3][4]
PLUMED: Action UPPER_WALLS
PLUMED:   with label zwall
PLUMED:   with stride 1
PLUMED:   with arguments p1.zzz
PLUMED:   at 49.000000
PLUMED:   with an offset 0.000000
PLUMED:   with force constant 16326530.612245
PLUMED:   and exponent 2.000000
PLUMED:   rescaled 1.000000
PLUMED:   added component to this action:  zwall.bias
PLUMED:   added component to this action:  zwall.force2
PLUMED: Action RESTRAINT
PLUMED:   with label res
PLUMED:   with stride 1
PLUMED:   with arguments p1.sss
PLUMED:   at 27.850511
PLUMED:   with harmonic force constant 30.000000
PLUMED:   and linear force constant 0.000000
PLUMED:   added component to this action:  res.bias
PLUMED:   added component to this action:  res.force2
PLUMED: Action PRINT
PLUMED:   with label @5
PLUMED:   with stride 10
PLUMED:   with arguments p1.sss p1.zzz metaU.bias res.bias zwall.bias
PLUMED:   on file COLVAR
PLUMED:   with format  %8.16f
PLUMED: END FILE: plumed.dat
PLUMED: Timestep: 0.002000
PLUMED: KbT: 2.494353
PLUMED: Relevant bibliography:
PLUMED:   [1] Tribello, Bonomi, Branduardi, Camilloni, and Bussi, Comput. Phys. Commun. 185, 604 (2014)
PLUMED:   [2] Branduardi, Gervasio, Parrinello J. Chem. Phys. 126, 054103 (2007)
PLUMED:   [3] Laio and Parrinello, PNAS 99, 12562 (2002)
PLUMED:   [4] Barducci, Bussi, and Parrinello, Phys. Rev. Lett. 100, 020603 (2008)
PLUMED: Please read and cite where appropriate!
PLUMED: Finished setup
Started mdrun on rank 0 Fri Jan 12 14:06:15 2018
           Step           Time         Lambda
              0        0.00000        0.00000

   Energies (kJ/mol)
           Bond            U-B    Proper Dih.  Improper Dih.      CMAP Dih.
    8.27753e-01    1.62049e+02    1.58961e+02    5.25038e+00   -2.98450e+01
          LJ-14     Coulomb-14        LJ (SR)   Coulomb (SR)   Coul. recip.
    1.64151e+02    1.65953e+03    5.02837e+03   -4.80852e+04    1.42746e+02
      Potential    Kinetic En.   Total Energy  Conserved En.    Temperature
   -4.07931e+04    7.52271e+03   -3.32704e+04   -3.32704e+04    3.05201e+02
    1.88692e+03    1.58521e-06

	<====  A V E R A G E S  ====>

	Statistics over 6579 steps using 67 frames

   Energies (kJ/mol)
           Bond            U-B    Proper Dih.  Improper Dih.      CMAP Dih.
    6.65030e+01    1.54521e+02    1.57292e+02    8.28803e+00   -2.31664e+01
          LJ-14     Coulomb-14        LJ (SR)   Coulomb (SR)   Coul. recip.
    1.21599e+02    1.62798e+03    4.22919e+03   -4.73435e+04    1.42166e+02
      Potential    Kinetic En.   Total Energy  Conserved En.    Temperature
   -4.08591e+04    7.39554e+03   -3.34635e+04   -3.32630e+04    3.00042e+02
 Pressure (bar)   Constr. rmsd
   -4.13959e+02    0.00000e+00

   Total Virial (kJ/mol)
    2.86173e+03    4.41905e+01   -1.24924e+01
    4.45674e+01    2.78185e+03   -3.21807e+00
   -1.24436e+01   -3.38584e+00    2.87633e+03

   Pressure (bar)
   -4.31493e+02   -5.32181e+01    2.14032e+01
   -5.36344e+01   -3.65204e+02    4.03277e+00
    2.13493e+01    4.21808e+00   -4.45180e+02

  Epot (kJ/mol)        Coul-SR          LJ-SR        Coul-14          LJ-14
Protein-Protein   -1.41378e+03   -6.79191e+01    1.62798e+03    1.21599e+02
Protein-non-Protein   -3.60677e+02   -1.46271e+02    0.00000e+00    0.00000e+00
non-Protein-non-Protein   -4.55690e+04    4.44338e+03    0.00000e+00    0.00000e+00

      T-Protein  T-non-Protein
    2.96520e+02    3.00158e+02
